
  -OEChem-04142221353D

 19 19  0     0  0  0  0  0  0999 V2000
   -0.8576   -2.3754    3.1485 C   0  0  0  0  0  0  0  0  0  0  0  0
   -0.1848   -1.0587   -0.2182 C   0  0  0  0  0  0  0  0  0  0  0  0
    1.0829   -1.8649    0.0355 C   0  0  0  0  0  0  0  0  0  0  0  0
   -1.1613   -1.6371    0.7942 C   0  0  0  0  0  0  0  0  0  0  0  0
    1.0860   -2.0286    1.5489 C   0  0  0  0  0  0  0  0  0  0  0  0
    0.1446   -2.7768    4.2009 C   0  0  0  0  0  0  0  0  0  0  0  0
   -0.3265   -2.0398    1.9165 N   0  0  0  0  0  0  0  0  0  0  0  0
   -2.0624   -2.3650    3.4059 O   0  0  0  0  0  0  0  0  0  0  0  0
   -0.0058    0.0028   -0.0104 H   0  0  0  0  0  0  0  0  0  0  0  0
   -0.5412   -1.1566   -1.2474 H   0  0  0  0  0  0  0  0  0  0  0  0
    1.0115   -2.8443   -0.4519 H   0  0  0  0  0  0  0  0  0  0  0  0
    1.9792   -1.3578   -0.3322 H   0  0  0  0  0  0  0  0  0  0  0  0
   -1.9256   -0.9219    1.1125 H   0  0  0  0  0  0  0  0  0  0  0  0
   -1.6564   -2.5352    0.4087 H   0  0  0  0  0  0  0  0  0  0  0  0
    1.5858   -2.9455    1.8724 H   0  0  0  0  0  0  0  0  0  0  0  0
    1.5539   -1.1705    2.0433 H   0  0  0  0  0  0  0  0  0  0  0  0
    0.4578   -1.8938    4.7483 H   0  0  0  0  0  0  0  0  0  0  0  0
    1.0012   -3.2373    3.7190 H   0  0  0  0  0  0  0  0  0  0  0  0
   -0.3169   -3.4885    4.8780 H   0  0  0  0  0  0  0  0  0  0  0  0
  1  6  1  0  0  0  0
  1  7  1  0  0  0  0
  1  8  2  0  0  0  0
  2  3  1  0  0  0  0
  2  4  1  0  0  0  0
  3  5  1  0  0  0  0
  4  7  1  0  0  0  0
  5  7  1  0  0  0  0
  2  9  1  0  0  0  0
  2 10  1  0  0  0  0
  3 11  1  0  0  0  0
  3 12  1  0  0  0  0
  4 13  1  0  0  0  0
  4 14  1  0  0  0  0
  5 15  1  0  0  0  0
  5 16  1  0  0  0  0
  6 17  1  0  0  0  0
  6 18  1  0  0  0  0
  6 19  1  0  0  0  0
M  END
$$$$
