
  -OEChem-04142221353D

 10  9  0     0  0  0  0  0  0999 V2000
    2.4896    0.1380   -1.3857 C   0  0  0  0  0  0  0  0  0  0  0  0
    0.8445   -0.4935    0.4924 C   0  0  0  0  0  0  0  0  0  0  0  0
    1.8687   -0.9635   -0.5222 C   0  0  0  0  0  0  0  0  0  0  0  0
    3.3752   -0.2208   -2.2093 O   0  5  0  0  0  0  0  0  0  0  0  0
    2.0254    1.2932   -1.1603 O   0  0  0  0  0  0  0  0  0  0  0  0
    1.2789    0.2383    1.1814 H   0  0  0  0  0  0  0  0  0  0  0  0
   -0.0136   -0.0259   -0.0017 H   0  0  0  0  0  0  0  0  0  0  0  0
    0.4773   -1.3392    1.0824 H   0  0  0  0  0  0  0  0  0  0  0  0
    1.3988   -1.6929   -1.1925 H   0  0  0  0  0  0  0  0  0  0  0  0
    2.6816   -1.4790    0.0029 H   0  0  0  0  0  0  0  0  0  0  0  0
  1  3  1  0  0  0  0
  1  4  1  0  0  0  0
  1  5  2  0  0  0  0
  2  3  1  0  0  0  0
  2  6  1  0  0  0  0
  2  7  1  0  0  0  0
  2  8  1  0  0  0  0
  3  9  1  0  0  0  0
  3 10  1  0  0  0  0
M  CHG  1   4  -1
M  END
$$$$
