
  -OEChem-04142221353D

 19 20  0     0  0  0  0  0  0999 V2000
   -0.7036    1.3640    1.5041 C   0  0  0  0  0  0  0  0  0  0  0  0
   -0.7671    0.1975    0.7446 C   0  0  0  0  0  0  0  0  0  0  0  0
   -1.6773    1.6439    2.4698 C   0  0  0  0  0  0  0  0  0  0  0  0
   -1.8022   -0.7245    0.9247 C   0  0  0  0  0  0  0  0  0  0  0  0
   -4.5471   -0.4724    3.2738 C   0  0  0  0  0  0  0  0  0  0  0  0
   -2.7304    0.7292    2.6692 C   0  0  0  0  0  0  0  0  0  0  0  0
   -3.8586    0.6897    3.5356 C   0  0  0  0  0  0  0  0  0  0  0  0
   -2.7685   -0.4315    1.8936 C   0  0  0  0  0  0  0  0  0  0  0  0
   -4.2341    1.7076    4.5379 C   0  0  0  0  0  0  0  0  0  0  0  0
   -3.8818   -1.1421    2.2822 N   0  0  0  0  0  0  0  0  0  0  0  0
    0.1112    2.0654    1.3462 H   0  0  0  0  0  0  0  0  0  0  0  0
   -0.0003    0.0001   -0.0001 H   0  0  0  0  0  0  0  0  0  0  0  0
   -1.6132    2.5572    3.0545 H   0  0  0  0  0  0  0  0  0  0  0  0
   -1.8514   -1.6318    0.3322 H   0  0  0  0  0  0  0  0  0  0  0  0
   -5.4494   -0.8842    3.7045 H   0  0  0  0  0  0  0  0  0  0  0  0
   -3.7750    1.4893    5.5156 H   0  0  0  0  0  0  0  0  0  0  0  0
   -3.9174    2.7202    4.2366 H   0  0  0  0  0  0  0  0  0  0  0  0
   -5.3263    1.7599    4.6838 H   0  0  0  0  0  0  0  0  0  0  0  0
   -4.1662   -2.0297    1.8914 H   0  0  0  0  0  0  0  0  0  0  0  0
  1  2  1  0  0  0  0
  1  3  2  0  0  0  0
  2  4  2  0  0  0  0
  3  6  1  0  0  0  0
  4  8  1  0  0  0  0
  5  7  2  0  0  0  0
  5 10  1  0  0  0  0
  6  7  1  0  0  0  0
  6  8  2  0  0  0  0
  7  9  1  0  0  0  0
  8 10  1  0  0  0  0
  1 11  1  0  0  0  0
  2 12  1  0  0  0  0
  3 13  1  0  0  0  0
  4 14  1  0  0  0  0
  5 15  1  0  0  0  0
  9 16  1  0  0  0  0
  9 17  1  0  0  0  0
  9 18  1  0  0  0  0
 10 19  1  0  0  0  0
M  END
$$$$
